pre_process/oedisi-ieee123-main/qsts/Line_new.dss
new Line.9658558dff Bus1=149 Bus2=1 C0=1.6 C1=3.4 CMatrix=[2.8517100719999995, -0.920293787, -0.350755566, -0.920293787, 3.004631862, -0.585011253, -0.350755566, -0.585011253, 2.71134756] EmergAmps=600.0 Geometry= LineCode=1 NormAmps=400.0 NumCust=0 Parent=0 Phases=3 R0=0.1784 R1=0.058 Rg=0.01805 Rho=100.0 RMatrix=[0.086666667, 0.029545455, 0.02907197, 0.029545455, 0.088371212, 0.029924242, 0.02907197, 0.029924242, 0.087405303] Spacing= TotalCust=0 Units=0 X0=0.4047 X1=0.1206 Xg=0.155081 XMatrix=[0.204166667, 0.095018939, 0.072897727, 0.095018939, 0.198522727, 0.080227273, 0.072897727, 0.080227273, 0.201723485] Yprim=[6.422970611176341, -13.318244469441764, -3.1198970975103664, 4.571812122685889, -1.1258181941131997, 2.9696646760397902, -6.422970611176341, 13.318244684455637, 3.1198970975103664, -4.571812192074407, 1.1258181941131997, -2.9696647024861367, -3.1198970975103664, 4.571812122685889, 7.182343584028698, -13.801161344424074, -1.911067478068104, 3.6244765047559415, 3.1198970975103664, -4.571812192074407, -7.182343584028698, 13.80116157096798, 1.911067478068104, -3.624476548864751, -1.1258181941131997, 2.9696646760397902, -1.911067478068104, 3.6244765047559415, 5.770479295366923, -12.853288462088235, 1.1258181941131997, -2.9696647024861367, 1.911067478068104, -3.624476548864751, -5.770479295366923, 12.853288666519026, -6.422970611176341, 13.318244684455637, 3.1198970975103664, -4.571812192074407, 1.1258181941131997, -2.9696647024861367, 6.422970611176341, -13.318244469441764, -3.1198970975103664, 4.571812122685889, -1.1258181941131997, 2.9696646760397902, 3.1198970975103664, -4.571812192074407, -7.182343584028698, 13.80116157096798, 1.911067478068104, -3.624476548864751, -3.1198970975103664, 4.571812122685889, 7.182343584028698, -13.801161344424074, -1.911067478068104, 3.6244765047559415, 1.1258181941131997, -2.9696647024861367, 1.911067478068104, -3.624476548864751, -5.770479295366923, 12.853288666519026, -1.1258181941131997, 2.9696646760397902, -1.911067478068104, 3.6244765047559415, 5.770479295366923, -12.853288462088235] Idx=1 IsSwitch=False SeasonRating=400.0 bus1=b61d505233 bus2=e9e6f8b59f Length=0.4029674173778108 ;
new Line.8eb813fb86 Bus1=1.2 Bus2=2.2 C0=3.4 C1=3.4 CMatrix=[2.270366128] EmergAmps=600.0 Geometry= LineCode=10 NormAmps=400.0 NumCust=0 Parent=0 Phases=1 R0=0.058 R1=0.058 Rg=0.01805 Rho=100.0 RMatrix=[0.251742424] Spacing= TotalCust=0 Units=0 X0=0.1206 X1=0.1206 Xg=0.155081 XMatrix=[0.255208333] Yprim=[11.194288766701773, -11.34840807132733, -11.194288766701773, 11.348408146219269, -11.194288766701773, 11.348408146219269, 11.194288766701773, -11.34840807132733] Idx=2 IsSwitch=False SeasonRating=400.0 bus1=38bfbe5e4f bus2=fba11f27dc Length=0.177684318555047 ;
new Line.cdc1660b11 Bus1=1.3 Bus2=3.3 C0=3.4 C1=3.4 CMatrix=[2.270366128] EmergAmps=600.0 Geometry= LineCode=11 NormAmps=400.0 NumCust=0 Parent=0 Phases=1 R0=0.058 R1=0.058 Rg=0.01805 Rho=100.0 RMatrix=[0.251742424] Spacing= TotalCust=0 Units=0 X0=0.1206 X1=0.1206 Xg=0.155081 XMatrix=[0.255208333] Yprim=[7.836002136691239, -7.943885595365004, -7.836002136691239, 7.943885702353487, -7.836002136691239, 7.943885702353487, 7.836002136691239, -7.943885595365004] Idx=3 IsSwitch=False SeasonRating=400.0 bus1=c5a2bdd1ee bus2=fc3aaf4ba4 Length=0.24081595751591597 ;
new Line.f7e2dd6e48 Bus1=1.1.2.3 Bus2=7.1.2.3 C0=1.6 C1=3.4 CMatrix=[2.8517100719999995, -0.920293787, -0.350755566, -0.920293787, 3.004631862, -0.585011253, -0.350755566, -0.585011253, 2.71134756] EmergAmps=600.0 Geometry= LineCode=1 NormAmps=400.0 NumCust=0 Parent=0 Phases=3 R0=0.1784 R1=0.058 Rg=0.01805 Rho=100.0 RMatrix=[0.086666667, 0.029545455, 0.02907197, 0.029545455, 0.088371212, 0.029924242, 0.02907197, 0.029924242, 0.087405303] Spacing= TotalCust=0 Units=0 X0=0.4047 X1=0.1206 Xg=0.155081 XMatrix=[0.204166667, 0.095018939, 0.072897727, 0.095018939, 0.198522727, 0.080227273, 0.072897727, 0.080227273, 0.201723485] Yprim=[8.563960814901792, -17.75765941801378, -4.159862796680489, 6.095749537391155, -1.5010909254842677, 3.9595529168134234, -8.563960814901792, 17.757659579274186, 4.159862796680489, -6.095749589432542, 1.5010909254842677, -3.9595529366481834, -4.159862796680489, 6.095749537391155, 9.576458112038265, -18.401548591382713, -2.548089970757473, 4.8326353654047285, 4.159862796680489, -6.095749589432542, -9.576458112038265, 18.40154876129064, 2.548089970757473, -4.832635398486335, -1.5010909254842677, 3.9595529168134234, -2.548089970757473, 4.8326353654047285, 7.693972393822567, -17.137718068702277, 1.5010909254842677, -3.9595529366481834, 2.548089970757473, -4.832635398486335, -7.693972393822567, 17.13771822202537, -8.563960814901792, 17.757659579274186, 4.159862796680489, -6.095749589432542, 1.5010909254842677, -3.9595529366481834, 8.563960814901792, -17.75765941801378, -4.159862796680489, 6.095749537391155, -1.5010909254842677, 3.9595529168134234, 4.159862796680489, -6.095749589432542, -9.576458112038265, 18.40154876129064, 2.548089970757473, -4.832635398486335, -4.159862796680489, 6.095749537391155, 9.576458112038265, -18.401548591382713, -2.548089970757473, 4.8326353654047285, 1.5010909254842677, -3.9595529366481834, 2.548089970757473, -4.832635398486335, -7.693972393822567, 17.13771822202537, -1.5010909254842677, 3.9595529168134234, -2.548089970757473, 4.8326353654047285, 7.693972393822567, -17.137718068702277] Idx=4 IsSwitch=False SeasonRating=400.0 bus1=a22e2dde28 bus2=b61d505233 Length=0.2930543324106255 ;
new Line.ec9a46f272 Bus1=3.3 Bus2=4.3 C0=3.4 C1=3.4 CMatrix=[2.270366128] EmergAmps=600.0 Geometry= LineCode=11 NormAmps=400.0 NumCust=0 Parent=0 Phases=1 R0=0.058 R1=0.058 Rg=0.01805 Rho=100.0 RMatrix=[0.251742424] Spacing= TotalCust=0 Units=0 X0=0.1206 X1=0.1206 Xg=0.155081 XMatrix=[0.255208333] Yprim=[9.795002670864049, -9.929857042351072, -9.795002670864049, 9.929857127941858, -9.795002670864049, 9.929857127941858, 9.795002670864049, -9.929857042351072] Idx=5 IsSwitch=False SeasonRating=400.0 bus1=fc3aaf4ba4 bus2=69327e32ab Length=0.19021458295355514 ;
new Line.f483a1142c Bus1=3.3 Bus2=5.3 C0=3.4 C1=3.4 CMatrix=[2.270366128] EmergAmps=600.0 Geometry= LineCode=11 NormAmps=400.0 NumCust=0 Parent=0 Phases=1 R0=0.058 R1=0.058 Rg=0.01805 Rho=100.0 RMatrix=[0.251742424] Spacing= TotalCust=0 Units=0 X0=0.1206 X1=0.1206 Xg=0.155081 XMatrix=[0.255208333] Yprim=[6.027693951300954, -6.110681170417655, -6.027693951300954, 6.110681309502683, -6.027693951300954, 6.110681309502683, 6.027693951300954, -6.110681170417655] Idx=6 IsSwitch=False SeasonRating=400.0 bus1=fc3aaf4ba4 bus2=e0afe7dbd6 Length=0.3140438767888908 ;
new Line.53c5f3c11a Bus1=5.3 Bus2=6.3 C0=3.4 C1=3.4 CMatrix=[2.270366128] EmergAmps=600.0 Geometry= LineCode=11 NormAmps=400.0 NumCust=0 Parent=0 Phases=1 R0=0.058 R1=0.058 Rg=0.01805 Rho=100.0 RMatrix=[0.251742424] Spacing= TotalCust=0 Units=0 X0=0.1206 X1=0.1206 Xg=0.155081 XMatrix=[0.255208333] Yprim=[7.836002136691239, -7.943885595365004, -7.836002136691239, 7.943885702353487, -7.836002136691239, 7.943885702353487, 7.836002136691239, -7.943885595365004] Idx=7 IsSwitch=False SeasonRating=400.0 bus1=e0afe7dbd6 bus2=3833c7bf4b Length=0.2524002746787651 ;
new Line.10e262ce14 Bus1=7.1.2.3 Bus2=8.1.2.3 C0=1.6 C1=3.4 CMatrix=[2.8517100719999995, -0.920293787, -0.350755566, -0.920293787, 3.004631862, -0.585011253, -0.350755566, -0.585011253, 2.71134756] EmergAmps=600.0 Geometry= LineCode=1 NormAmps=400.0 NumCust=0 Parent=0 Phases=3 R0=0.1784 R1=0.058 Rg=0.01805 Rho=100.0 RMatrix=[0.086666667, 0.029545455, 0.02907197, 0.029545455, 0.088371212, 0.029924242, 0.02907197, 0.029924242, 0.087405303] Spacing= TotalCust=0 Units=0 X0=0.4047 X1=0.1206 Xg=0.155081 XMatrix=[0.204166667, 0.095018939, 0.072897727, 0.095018939, 0.198522727, 0.080227273, 0.072897727, 0.080227273, 0.201723485] Yprim=[12.845941222352682, -26.636489261404336, -6.239794195020733, 9.143624349454555, -2.2516363882263994, 5.9393293917491, -12.845941222352682, 26.636489368911274, 6.239794195020733, -9.143624384148813, 2.2516363882263994, -5.939329404972273, -6.239794195020733, 9.143624349454555, 14.364687168057396, -27.602323028664006, -3.822134956136208, 7.2489530756750975, 6.239794195020733, -9.143624384148813, -14.364687168057396, 27.60232314193596, 3.822134956136208, -7.248953097729502, -2.2516363882263994, 5.9393293917491, -3.822134956136208, 7.2489530756750975, 11.540958590733846, -25.706577230822656, 2.2516363882263994, -5.939329404972273, 3.822134956136208, -7.248953097729502, -11.540958590733846, 25.70657733303805, -12.845941222352682, 26.636489368911274, 6.239794195020733, -9.143624384148813, 2.2516363882263994, -5.939329404972273, 12.845941222352682, -26.636489261404336, -6.239794195020733, 9.143624349454555, -2.2516363882263994, 5.9393293917491, 6.239794195020733, -9.143624384148813, -14.364687168057396, 27.60232314193596, 3.822134956136208, -7.248953097729502, -6.239794195020733, 9.143624349454555, 14.364687168057396, -27.602323028664006, -3.822134956136208, 7.2489530756750975, 2.2516363882263994, -5.939329404972273, 3.822134956136208, -7.248953097729502, -11.540958590733846, 25.70657733303805, -2.2516363882263994, 5.9393293917491, -3.822134956136208, 7.2489530756750975, 11.540958590733846, -25.706577230822656] Idx=8 IsSwitch=False SeasonRating=400.0 bus1=b61d505233 bus2=58a251664c Length=0.1981325780187602 ;
new Line.5d28af17fc Bus1=8.2 Bus2=12.2 C0=3.4 C1=3.4 CMatrix=[2.270366128] EmergAmps=600.0 Geometry= LineCode=10 NormAmps=400.0 NumCust=0 Parent=0 Phases=1 R0=0.058 R1=0.058 Rg=0.01805 Rho=100.0 RMatrix=[0.251742424] Spacing= TotalCust=0 Units=0 X0=0.1206 X1=0.1206 Xg=0.155081 XMatrix=[0.255208333] Yprim=[8.706669040768043, -8.826539572992017, -8.706669040768043, 8.826539669281651, -8.706669040768043, 8.826539669281651, 8.706669040768043, -8.826539572992017] Idx=9 IsSwitch=False SeasonRating=400.0 bus1=340968cb52 bus2=7d10933a83 Length=0.23109965867157167 ;
new Line.fdcfe35aa3 Bus1=8.1 Bus2=9.1 C0=3.4 C1=3.4 CMatrix=[2.270366128] EmergAmps=600.0 Geometry= LineCode=9 NormAmps=400.0 NumCust=0 Parent=0 Phases=1 R0=0.058 R1=0.058 Rg=0.01805 Rho=100.0 RMatrix=[0.251742424] Spacing= TotalCust=0 Units=0 X0=0.1206 X1=0.1206 Xg=0.155081 XMatrix=[0.255208333] Yprim=[8.706669040768043, -8.826539572992017, -8.706669040768043, 8.826539669281651, -8.706669040768043, 8.826539669281651, 8.706669040768043, -8.826539572992017] Idx=10 IsSwitch=False SeasonRating=400.0 bus1=2f836386e3 bus2=b557323f91 Length=0.21625733812057818 ;
new Line.3e62a63bb3 Bus1=8.1.2.3 Bus2=13.1.2.3 C0=1.6 C1=3.4 CMatrix=[2.8517100719999995, -0.920293787, -0.350755566, -0.920293787, 3.004631862, -0.585011253, -0.350755566, -0.585011253, 2.71134756] EmergAmps=600.0 Geometry= LineCode=1 NormAmps=400.0 NumCust=0 Parent=0 Phases=3 R0=0.1784 R1=0.058 Rg=0.01805 Rho=100.0 RMatrix=[0.086666667, 0.029545455, 0.02907197, 0.029545455, 0.088371212, 0.029924242, 0.02907197, 0.029924242, 0.087405303] Spacing= TotalCust=0 Units=0 X0=0.4047 X1=0.1206 Xg=0.155081 XMatrix=[0.204166667, 0.095018939, 0.072897727, 0.095018939, 0.198522727, 0.080227273, 0.072897727, 0.080227273, 0.201723485] Yprim=[8.563960814901792, -17.75765941801378, -4.159862796680489, 6.095749537391155, -1.5010909254842677, 3.9595529168134234, -8.563960814901792, 17.757659579274186, 4.159862796680489, -6.095749589432542, 1.5010909254842677, -3.9595529366481834, -4.159862796680489, 6.095749537391155, 9.576458112038265, -18.401548591382713, -2.548089970757473, 4.8326353654047285, 4.159862796680489, -6.095749589432542, -9.576458112038265, 18.40154876129064, 2.548089970757473, -4.832635398486335, -1.5010909254842677, 3.9595529168134234, -2.548089970757473, 4.8326353654047285, 7.693972393822567, -17.137718068702277, 1.5010909254842677, -3.9595529366481834, 2.548089970757473, -4.832635398486335, -7.693972393822567, 17.13771822202537, -8.563960814901792, 17.757659579274186, 4.159862796680489, -6.095749589432542, 1.5010909254842677, -3.9595529366481834, 8.563960814901792, -17.75765941801378, -4.159862796680489, 6.095749537391155, -1.5010909254842677, 3.9595529168134234, 4.159862796680489, -6.095749589432542, -9.576458112038265, 18.40154876129064, 2.548089970757473, -4.832635398486335, -4.159862796680489, 6.095749537391155, 9.576458112038265, -18.401548591382713, -2.548089970757473, 4.8326353654047285, 1.5010909254842677, -3.9595529366481834, 2.548089970757473, -4.832635398486335, -7.693972393822567, 17.13771822202537, -1.5010909254842677, 3.9595529168134234, -2.548089970757473, 4.8326353654047285, 7.693972393822567, -17.137718068702277] Idx=11 IsSwitch=False SeasonRating=400.0 bus1=58a251664c bus2=573ea483c4 Length=0.30372796148035663 ;
new Line.6b0758f3e1 Bus1=9r.1 Bus2=14.1 C0=3.4 C1=3.4 CMatrix=[2.270366128] EmergAmps=600.0 Geometry= LineCode=9 NormAmps=400.0 NumCust=0 Parent=0 Phases=1 R0=0.058 R1=0.058 Rg=0.01805 Rho=100.0 RMatrix=[0.251742424] Spacing= TotalCust=0 Units=0 X0=0.1206 X1=0.1206 Xg=0.155081 XMatrix=[0.255208333] Yprim=[4.609413021583083, -4.672873760680453, -4.609413021583083, 4.672873942560875, -4.609413021583083, 4.672873942560875, 4.609413021583083, -4.672873760680453] Idx=12 IsSwitch=False SeasonRating=400.0 bus1=f8f6e34041 bus2=905db2c459 Length=0.4171243277822831 ;
new Line.56f4bf4fc9 Bus1=13.3 Bus2=34.3 C0=3.4 C1=3.4 CMatrix=[2.270366128] EmergAmps=600.0 Geometry= LineCode=11 NormAmps=400.0 NumCust=0 Parent=0 Phases=1 R0=0.058 R1=0.058 Rg=0.01805 Rho=100.0 RMatrix=[0.251742424] Spacing= TotalCust=0 Units=0 X0=0.1206 X1=0.1206 Xg=0.155081 XMatrix=[0.255208333] Yprim=[13.060003561152065, -13.239809439729388, -13.060003561152065, 13.239809503922478, -13.060003561152065, 13.239809503922478, 13.060003561152065, -13.239809439729388] Idx=13 IsSwitch=False SeasonRating=400.0 bus1=61ad209a59 bus2=1a650842ae Length=0.14996973267378974 ;
new Line.dac58387bc Bus1=13.1.2.3 Bus2=18.1.2.3 C0=1.6 C1=3.4 CMatrix=[3.004631862, -0.585011253, -0.920293787, -0.585011253, 2.71134756, -0.350755566, -0.920293787, -0.350755566, 2.8517100719999995] EmergAmps=600.0 Geometry= LineCode=2 NormAmps=400.0 NumCust=0 Parent=0 Phases=3 R0=0.1784 R1=0.058 Rg=0.01805 Rho=100.0 RMatrix=[0.088371212, 0.02992424, 0.029545455, 0.02992424, 0.087405303, 0.02907197, 0.029545455, 0.02907197, 0.086666667] Spacing= TotalCust=0 Units=0 X0=0.4047 X1=0.1206 Xg=0.155081 XMatrix=[0.198522727, 0.080227273, 0.095018939, 0.080227273, 0.201723485, 0.072897727, 0.095018939, 0.072897727, 0.204166667] Yprim=[3.4823484325344802, -6.6914717689308825, -0.9265782275935145, 1.7573218000400386, -1.5126773719649902, 2.2166360777500764, -3.4823484325344802, 6.691472236177687, 0.9265782275935145, -1.7573218910144577, 1.5126773719649902, -2.2166362208638923, -0.9265782275935145, 1.7573218000400386, 2.797808170793111, -6.231897078363182, -0.5458512331612879, 1.439837398965945, 0.9265782275935145, -1.7573218910144577, -2.797808170793111, 6.231897500001685, 0.5458512331612879, -1.4398374535115348, -1.5126773719649902, 2.2166360777500764, -0.5458512331612879, 1.439837398965945, 3.1141675612477306, -6.457330323813868, 1.5126773719649902, -2.2166362208638923, 0.5458512331612879, -1.4398374535115348, -3.1141675612477306, 6.4573307672799825, -3.4823484325344802, 6.691472236177687, 0.9265782275935145, -1.7573218910144577, 1.5126773719649902, -2.2166362208638923, 3.4823484325344802, -6.6914717689308825, -0.9265782275935145, 1.7573218000400386, -1.5126773719649902, 2.2166360777500764, 0.9265782275935145, -1.7573218910144577, -2.797808170793111, 6.231897500001685, 0.5458512331612879, -1.4398374535115348, -0.9265782275935145, 1.7573218000400386, 2.797808170793111, -6.231897078363182, -0.5458512331612879, 1.439837398965945, 1.5126773719649902, -2.2166362208638923, 0.5458512331612879, -1.4398374535115348, -3.1141675612477306, 6.4573307672799825, -1.5126773719649902, 2.2166360777500764, -0.5458512331612879, 1.439837398965945, 3.1141675612477306, -6.457330323813868] Idx=14 IsSwitch=False SeasonRating=400.0 bus1=573ea483c4 bus2=b3841e627f Length=0.8119991635743107 ;
new Line.b6ea1b1e1d Bus1=14.1 Bus2=11.1 C0=3.4 C1=3.4 CMatrix=[2.270366128] EmergAmps=600.0 Geometry= LineCode=9 NormAmps=400.0 NumCust=0 Parent=0 Phases=1 R0=0.058 R1=0.058 Rg=0.01805 Rho=100.0 RMatrix=[0.251742424] Spacing= TotalCust=0 Units=0 X0=0.1206 X1=0.1206 Xg=0.155081 XMatrix=[0.255208333] Yprim=[7.836002136691239, -7.943885595365004, -7.836002136691239, 7.943885702353487, -7.836002136691239, 7.943885702353487, 7.836002136691239, -7.943885595365004] Idx=15 IsSwitch=False SeasonRating=400.0 bus1=905db2c459 bus2=b557323f91 Length=0.24403333338803773 ;
new Line.3bfd95ff8c Bus1=14.1 Bus2=10.1 C0=3.4 C1=3.4 CMatrix=[2.270366128] EmergAmps=600.0 Geometry= LineCode=9 NormAmps=400.0 NumCust=0 Parent=0 Phases=1 R0=0.058 R1=0.058 Rg=0.01805 Rho=100.0 RMatrix=[0.251742424] Spacing= TotalCust=0 Units=0 X0=0.1206 X1=0.1206 Xg=0.155081 XMatrix=[0.255208333] Yprim=[7.836002136691239, -7.943885595365004, -7.836002136691239, 7.943885702353487, -7.836002136691239, 7.943885702353487, 7.836002136691239, -7.943885595365004] Idx=16 IsSwitch=False SeasonRating=400.0 bus1=905db2c459 bus2=75529f2e14 Length=0.2541961795447444 ;
new Line.a5e8d466ba Bus1=15.3 Bus2=16.3 C0=3.4 C1=3.4 CMatrix=[2.270366128] EmergAmps=600.0 Geometry= LineCode=11 NormAmps=400.0 NumCust=0 Parent=0 Phases=1 R0=0.058 R1=0.058 Rg=0.01805 Rho=100.0 RMatrix=[0.251742424] Spacing= TotalCust=0 Units=0 X0=0.1206 X1=0.1206 Xg=0.155081 XMatrix=[0.255208333] Yprim=[5.224001424460827, -5.295923641086267, -5.224001424460827, 5.295923801568992, -5.224001424460827, 5.295923801568992, 5.224001424460827, -5.295923641086267] Idx=17 IsSwitch=False SeasonRating=400.0 bus1=47f0edf178 bus2=daaafde617 Length=0.38933009656604584 ;
new Line.0fc6d7c66c Bus1=15.3 Bus2=17.3 C0=3.4 C1=3.4 CMatrix=[2.270366128] EmergAmps=600.0 Geometry= LineCode=11 NormAmps=400.0 NumCust=0 Parent=0 Phases=1 R0=0.058 R1=0.058 Rg=0.01805 Rho=100.0 RMatrix=[0.251742424] Spacing= TotalCust=0 Units=0 X0=0.1206 X1=0.1206 Xg=0.155081 XMatrix=[0.255208333] Yprim=[5.597144383350886, -5.6742039233257575, -5.597144383350886, 5.674204073109634, -5.597144383350886, 5.674204073109634, 5.597144383350886, -5.6742039233257575] Idx=18 IsSwitch=False SeasonRating=400.0 bus1=47f0edf178 bus2=c03a9619d2 Length=0.3524131172386016 ;
new Line.75a03bf0f3 Bus1=18.1 Bus2=19.1 C0=3.4 C1=3.4 CMatrix=[2.270366128] EmergAmps=600.0 Geometry= LineCode=9 NormAmps=400.0 NumCust=0 Parent=0 Phases=1 R0=0.058 R1=0.058 Rg=0.01805 Rho=100.0 RMatrix=[0.251742424] Spacing= TotalCust=0 Units=0 X0=0.1206 X1=0.1206 Xg=0.155081 XMatrix=[0.255208333] Yprim=[7.836002136691239, -7.943885595365004, -7.836002136691239, 7.943885702353487, -7.836002136691239, 7.943885702353487, 7.836002136691239, -7.943885595365004] Idx=19 IsSwitch=False SeasonRating=400.0 bus1=90310db04e bus2=a35ba7c6c6 Length=0.26074503002280214 ;
new Line.8b9a670143 Bus1=18.1.2.3 Bus2=21.1.2.3 C0=1.6 C1=3.4 CMatrix=[3.004631862, -0.585011253, -0.920293787, -0.585011253, 2.71134756, -0.350755566, -0.920293787, -0.350755566, 2.8517100719999995] EmergAmps=600.0 Geometry= LineCode=2 NormAmps=400.0 NumCust=0 Parent=0 Phases=3 R0=0.1784 R1=0.058 Rg=0.01805 Rho=100.0 RMatrix=[0.088371212, 0.02992424, 0.029545455, 0.02992424, 0.087405303, 0.02907197, 0.029545455, 0.02907197, 0.086666667] Spacing= TotalCust=0 Units=0 X0=0.4047 X1=0.1206 Xg=0.155081 XMatrix=[0.198522727, 0.080227273, 0.095018939, 0.080227273, 0.201723485, 0.072897727, 0.095018939, 0.072897727, 0.204166667] Yprim=[9.576458189469822, -18.40154847958071, -2.5480901258821644, 4.832635167208151, -4.159862772903724, 6.095749555334318, -9.576458189469822, 18.40154864948864, 2.5480901258821644, -4.832635200289758, 4.159862772903724, -6.095749607375705, -2.5480901258821644, 4.832635167208151, 7.693972469681056, -17.137717971681543, -1.5010908911935426, 3.95955297732196, 2.5480901258821644, -4.832635200289758, -7.693972469681056, 17.137718125004636, 1.5010908911935426, -3.9595529971567203, -4.159862772903724, 6.095749555334318, -1.5010908911935426, 3.95955297732196, 8.56396079343126, -17.757659448759547, 4.159862772903724, -6.095749607375705, 1.5010908911935426, -3.9595529971567203, -8.56396079343126, 17.757659610019953, -9.576458189469822, 18.40154864948864, 2.5480901258821644, -4.832635200289758, 4.159862772903724, -6.095749607375705, 9.576458189469822, -18.40154847958071, -2.5480901258821644, 4.832635167208151, -4.159862772903724, 6.095749555334318, 2.5480901258821644, -4.832635200289758, -7.693972469681056, 17.137718125004636, 1.5010908911935426, -3.9595529971567203, -2.5480901258821644, 4.832635167208151, 7.693972469681056, -17.137717971681543, -1.5010908911935426, 3.95955297732196, 4.159862772903724, -6.095749607375705, 1.5010908911935426, -3.9595529971567203, -8.56396079343126, 17.757659610019953, -4.159862772903724, 6.095749555334318, -1.5010908911935426, 3.95955297732196, 8.56396079343126, -17.757659448759547] Idx=20 IsSwitch=False SeasonRating=400.0 bus1=b3841e627f bus2=e355a171aa Length=0.31380994442117977 ;
new Line.c4045a9428 Bus1=19.1 Bus2=20.1 C0=3.4 C1=3.4 CMatrix=[2.270366128] EmergAmps=600.0 Geometry= LineCode=9 NormAmps=400.0 NumCust=0 Parent=0 Phases=1 R0=0.058 R1=0.058 Rg=0.01805 Rho=100.0 RMatrix=[0.251742424] Spacing= TotalCust=0 Units=0 X0=0.1206 X1=0.1206 Xg=0.155081 XMatrix=[0.255208333] Yprim=[6.027693951300954, -6.110681170417655, -6.027693951300954, 6.110681309502683, -6.027693951300954, 6.110681309502683, 6.027693951300954, -6.110681170417655] Idx=21 IsSwitch=False SeasonRating=400.0 bus1=a35ba7c6c6 bus2=7f99630c56 Length=0.3188388009793648 ;
new Line.3169191cdb Bus1=21.2 Bus2=22.2 C0=3.4 C1=3.4 CMatrix=[2.270366128] EmergAmps=600.0 Geometry= LineCode=10 NormAmps=400.0 NumCust=0 Parent=0 Phases=1 R0=0.058 R1=0.058 Rg=0.01805 Rho=100.0 RMatrix=[0.251742424] Spacing= TotalCust=0 Units=0 X0=0.1206 X1=0.1206 Xg=0.155081 XMatrix=[0.255208333] Yprim=[3.731429588900591, -3.7828024907306084, -3.731429588900591, 3.782802715406423, -3.731429588900591, 3.782802715406423, 3.731429588900591, -3.7828024907306084] Idx=22 IsSwitch=False SeasonRating=400.0 bus1=0be766edf9 bus2=75529f2e14 Length=0.5344125907305108 ;
new Line.93e32f8d41 Bus1=21.1.2.3 Bus2=23.1.2.3 C0=1.6 C1=3.4 CMatrix=[3.004631862, -0.585011253, -0.920293787, -0.585011253, 2.71134756, -0.350755566, -0.920293787, -0.350755566, 2.8517100719999995] EmergAmps=600.0 Geometry= LineCode=2 NormAmps=400.0 NumCust=0 Parent=0 Phases=3 R0=0.1784 R1=0.058 Rg=0.01805 Rho=100.0 RMatrix=[0.088371212, 0.02992424, 0.029545455, 0.02992424, 0.087405303, 0.02907197, 0.029545455, 0.02907197, 0.086666667] Spacing= TotalCust=0 Units=0 X0=0.4047 X1=0.1206 Xg=0.155081 XMatrix=[0.198522727, 0.080227273, 0.095018939, 0.080227273, 0.201723485, 0.072897727, 0.095018939, 0.072897727, 0.204166667] Yprim=[11.49174982736378, -22.08185823779643, -3.0577081510585957, 5.799162212779705, -4.991835327484466, 7.314899485483025, -11.49174982736378, 22.081858379386368, 3.0577081510585957, -5.7991622403477106, 4.991835327484466, -7.314899528850848, -3.0577081510585957, 5.799162212779705, 9.232766963617266, -20.565261622236317, -1.8013090694322507, 4.751463580059098, 3.0577081510585957, -5.7991622403477106, -9.232766963617266, 20.56526175000556, 1.8013090694322507, -4.7514635965880645, -4.991835327484466, 7.314899485483025, -1.8013090694322507, 4.751463580059098, 10.27675295211751, -21.309191397640273, 4.991835327484466, -7.314899528850848, 1.8013090694322507, -4.7514635965880645, -10.27675295211751, 21.309191532023945, -11.49174982736378, 22.081858379386368, 3.0577081510585957, -5.7991622403477106, 4.991835327484466, -7.314899528850848, 11.49174982736378, -22.08185823779643, -3.0577081510585957, 5.799162212779705, -4.991835327484466, 7.314899485483025, 3.0577081510585957, -5.7991622403477106, -9.232766963617266, 20.56526175000556, 1.8013090694322507, -4.7514635965880645, -3.0577081510585957, 5.799162212779705, 9.232766963617266, -20.565261622236317, -1.8013090694322507, 4.751463580059098, 4.991835327484466, -7.314899528850848, 1.8013090694322507, -4.7514635965880645, -10.27675295211751, 21.309191532023945, -4.991835327484466, 7.314899485483025, -1.8013090694322507, 4.751463580059098, 10.27675295211751, -21.309191397640273] Idx=23 IsSwitch=False SeasonRating=400.0 bus1=e355a171aa bus2=340968cb52 Length=0.2530948805991864 ;
new Line.9689c84859 Bus1=23.3 Bus2=24.3 C0=3.4 C1=3.4 CMatrix=[2.270366128] EmergAmps=600.0 Geometry= LineCode=11 NormAmps=400.0 NumCust=0 Parent=0 Phases=1 R0=0.058 R1=0.058 Rg=0.01805 Rho=100.0 RMatrix=[0.251742424] Spacing= TotalCust=0 Units=0 X0=0.1206 X1=0.1206 Xg=0.155081 XMatrix=[0.255208333] Yprim=[3.5618191530414722, -3.6108569020587393, -3.5618191530414722, 3.6108571374334026, -3.5618191530414722, 3.6108571374334026, 3.5618191530414722, -3.6108569020587393] Idx=24 IsSwitch=False SeasonRating=400.0 bus1=061ae8f9e1 bus2=a22e2dde28 Length=0.564491871712111 ;
new Line.1194d06151 Bus1=23.1.2.3 Bus2=25.1.2.3 C0=1.6 C1=3.4 CMatrix=[3.004631862, -0.585011253, -0.920293787, -0.585011253, 2.71134756, -0.350755566, -0.920293787, -0.350755566, 2.8517100719999995] EmergAmps=600.0 Geometry= LineCode=2 NormAmps=400.0 NumCust=0 Parent=0 Phases=3 R0=0.1784 R1=0.058 Rg=0.01805 Rho=100.0 RMatrix=[0.088371212, 0.02992424, 0.029545455, 0.02992424, 0.087405303, 0.02907197, 0.029545455, 0.02907197, 0.086666667] Spacing= TotalCust=0 Units=0 X0=0.4047 X1=0.1206 Xg=0.155081 XMatrix=[0.198522727, 0.080227273, 0.095018939, 0.080227273, 0.201723485, 0.072897727, 0.095018939, 0.072897727, 0.204166667] Yprim=[10.447045297603438, -20.074416552784125, -2.779734682780542, 5.271965642718564, -4.5380321158949695, 6.649908614887073, -10.447045297603438, 20.07441670853306, 2.779734682780542, -5.271965673043371, 4.5380321158949695, -6.649908662591678, -2.779734682780542, 5.271965642718564, 8.393424512379331, -18.69569235945889, -1.6375536994838633, 4.31951234235274, 2.779734682780542, -5.271965673043371, -8.393424512379331, 18.695692500005055, 1.6375536994838633, -4.3195123605346035, -4.5380321158949695, 6.649908614887073, -1.6375536994838633, 4.31951234235274, 9.342502683743188, -19.371992154017907, 4.5380321158949695, -6.649908662591678, 1.6375536994838633, -4.3195123605346035, -9.342502683743188, 19.371992301839946, -10.447045297603438, 20.07441670853306, 2.779734682780542, -5.271965673043371, 4.5380321158949695, -6.649908662591678, 10.447045297603438, -20.074416552784125, -2.779734682780542, 5.271965642718564, -4.5380321158949695, 6.649908614887073, 2.779734682780542, -5.271965673043371, -8.393424512379331, 18.695692500005055, 1.6375536994838633, -4.3195123605346035, -2.779734682780542, 5.271965642718564, 8.393424512379331, -18.69569235945889, -1.6375536994838633, 4.31951234235274, 4.5380321158949695, -6.649908662591678, 1.6375536994838633, -4.3195123605346035, -9.342502683743188, 19.371992301839946, -4.5380321158949695, 6.649908614887073, -1.6375536994838633, 4.31951234235274, 9.342502683743188, -19.371992154017907] Idx=25 IsSwitch=False SeasonRating=400.0 bus1=340968cb52 bus2=4e0fdae14b Length=0.26681141851093076 ;
new Line.06bd24e89f Bus1=25r.1.3 Bus2=26.1.3 C0=1.6 C1=3.4 CMatrix=[2.569829596, -0.52995137, -0.52995137, 2.597460011] EmergAmps=600.0 Geometry= LineCode=7 NormAmps=400.0 NumCust=0 Parent=0 Phases=2 R0=0.1784 R1=0.058 Rg=0.01805 Rho=100.0 RMatrix=[0.086666667, 0.02907197, 0.02907197, 0.087405303] Spacing= TotalCust=0 Units=0 X0=0.4047 X1=0.1206 Xg=0.155081 XMatrix=[0.204166667, 0.072897727, 0.072897727, 0.201723485] Yprim=[5.860384602646994, -13.525771481219769, -2.2330752424388978, 4.764880546150121, -5.860384602646994, 13.525771650760282, 2.2330752424388978, -4.764880581112839, -2.2330752424388978, 4.764880546150121, 6.013774644554915, -13.60166808460249, 2.2330752424388978, -4.764880581112839, -6.013774644554915, 13.601668255965878, -5.860384602646994, 13.525771650760282, 2.2330752424388978, -4.764880581112839, 5.860384602646994, -13.525771481219769, -2.2330752424388978, 4.764880546150121, 2.2330752424388978, -4.764880581112839, -6.013774644554915, 13.601668255965878, -2.2330752424388978, 4.764880546150121, 6.013774644554915, -13.60166808460249] Idx=26 IsSwitch=False SeasonRating=400.0 bus1=fb887369b1 bus2=e887dc6993 Length=0.3514517245764206 ;
new Line.6b0758f3e1 Bus1=25.1.2.3 Bus2=28.1.2.3 C0=1.6 C1=3.4 CMatrix=[3.004631862, -0.585011253, -0.920293787, -0.585011253, 2.71134756, -0.350755566, -0.920293787, -0.350755566, 2.8517100719999995] EmergAmps=600.0 Geometry= LineCode=2 NormAmps=400.0 NumCust=0 Parent=0 Phases=3 R0=0.1784 R1=0.058 Rg=0.01805 Rho=100.0 RMatrix=[0.088371212, 0.02992424, 0.029545455, 0.02992424, 0.087405303, 0.02907197, 0.029545455, 0.02907197, 0.086666667] Spacing= TotalCust=0 Units=0 X0=0.4047 X1=0.1206 Xg=0.155081 XMatrix=[0.198522727, 0.080227273, 0.095018939, 0.080227273, 0.201723485, 0.072897727, 0.095018939, 0.072897727, 0.204166667] Yprim=[14.364687284204724, -27.602322860961, -3.8221351888232427, 7.2489527783802306, -6.239794159355581, 9.143624376369296, -14.364687284204724, 27.60232297423295, 3.8221351888232427, -7.248952800434635, 6.239794159355581, -9.143624411063554, -3.8221351888232427, 7.2489527783802306, 11.540958704521579, -25.706577085291556, -2.2516363367903125, 5.939329482511907, 3.8221351888232427, -7.248952800434635, -11.540958704521579, 25.70657718750695, 2.2516363367903125, -5.93932949573508, -6.239794159355581, 9.143624376369296, -2.2516363367903125, 5.939329482511907, 12.845941190146881, -26.636489307522982, 6.239794159355581, -9.143624411063554, 2.2516363367903125, -5.93932949573508, -12.845941190146881, 26.63648941502992, -14.364687284204724, 27.60232297423295, 3.8221351888232427, -7.248952800434635, 6.239794159355581, -9.143624411063554, 14.364687284204724, -27.602322860961, -3.8221351888232427, 7.2489527783802306, -6.239794159355581, 9.143624376369296, 3.8221351888232427, -7.248952800434635, -11.540958704521579, 25.70657718750695, 2.2516363367903125, -5.93932949573508, -3.8221351888232427, 7.2489527783802306, 11.540958704521579, -25.706577085291556, -2.2516363367903125, 5.939329482511907, 6.239794159355581, -9.143624411063554, 2.2516363367903125, -5.93932949573508, -12.845941190146881, 26.63648941502992, -6.239794159355581, 9.143624376369296, -2.2516363367903125, 5.939329482511907, 12.845941190146881, -26.636489307522982] Idx=27 IsSwitch=False SeasonRating=400.0 bus1=4e0fdae14b bus2=8b8807c56d Length=0.19705562372303123 ;
new Line.b4c320b5a8 Bus1=26.1.3 Bus2=27.1.3 C0=1.6 C1=3.4 CMatrix=[2.569829596, -0.52995137, -0.52995137, 2.597460011] EmergAmps=600.0 Geometry= LineCode=7 NormAmps=400.0 NumCust=0 Parent=0 Phases=2 R0=0.1784 R1=0.058 Rg=0.01805 Rho=100.0 RMatrix=[0.086666667, 0.02907197, 0.02907197, 0.087405303] Spacing= TotalCust=0 Units=0 X0=0.4047 X1=0.1206 Xg=0.155081 XMatrix=[0.204166667, 0.072897727, 0.072897727, 0.201723485] Yprim=[7.458671312459808, -17.214618331393588, -2.8420957631040507, 6.0643934394001775, -7.458671312459808, 17.21461846460399, 2.8420957631040507, -6.064393466870884, -2.8420957631040507, 6.0643934394001775, 7.653895002160799, -17.311214009313908, 2.8420957631040507, -6.064393466870884, -7.653895002160799, 17.31121414395657, -7.458671312459808, 17.21461846460399, 2.8420957631040507, -6.064393466870884, 7.458671312459808, -17.214618331393588, -2.8420957631040507, 6.0643934394001775, 2.8420957631040507, -6.064393466870884, -7.653895002160799, 17.31121414395657, -2.8420957631040507, 6.0643934394001775, 7.653895002160799, -17.311214009313908] Idx=28 IsSwitch=False SeasonRating=400.0 bus1=e887dc6993 bus2=f3c806a872 Length=0.2668230985863025 ;
new Line.5d28af17fc Bus1=26.3 Bus2=31.3 C0=3.4 C1=3.4 CMatrix=[2.270366128] EmergAmps=600.0 Geometry= LineCode=11 NormAmps=400.0 NumCust=0 Parent=0 Phases=1 R0=0.058 R1=0.058 Rg=0.01805 Rho=100.0 RMatrix=[0.251742424] Spacing= TotalCust=0 Units=0 X0=0.1206 X1=0.1206 Xg=0.155081 XMatrix=[0.255208333] Yprim=[8.706669040768043, -8.826539572992017, -8.706669040768043, 8.826539669281651, -8.706669040768043, 8.826539669281651, 8.706669040768043, -8.826539572992017] Idx=29 IsSwitch=False SeasonRating=400.0 bus1=a217975f38 bus2=e887dc6993 Length=0.22775966932786548 ;
new Line.18c35c4cba Bus1=27.1 Bus2=33.1 C0=3.4 C1=3.4 CMatrix=[2.270366128] EmergAmps=600.0 Geometry= LineCode=9 NormAmps=400.0 NumCust=0 Parent=0 Phases=1 R0=0.058 R1=0.058 Rg=0.01805 Rho=100.0 RMatrix=[0.251742424] Spacing= TotalCust=0 Units=0 X0=0.1206 X1=0.1206 Xg=0.155081 XMatrix=[0.255208333] Yprim=[3.9180010683456197, -3.9719426371997772, -3.9180010683456197, 3.9719428511767436, -3.9180010683456197, 3.9719428511767436, 3.9180010683456197, -3.9719426371997772] Idx=30 IsSwitch=False SeasonRating=400.0 bus1=6aae78fc7c bus2=b3841e627f Length=0.5155808506473328 ;
new Line.3927c9d7ae Bus1=28.1.2.3 Bus2=29.1.2.3 C0=1.6 C1=3.4 CMatrix=[3.004631862, -0.585011253, -0.920293787, -0.585011253, 2.71134756, -0.350755566, -0.920293787, -0.350755566, 2.8517100719999995] EmergAmps=600.0 Geometry= LineCode=2 NormAmps=400.0 NumCust=0 Parent=0 Phases=3 R0=0.1784 R1=0.058 Rg=0.01805 Rho=100.0 RMatrix=[0.088371212, 0.02992424, 0.029545455, 0.02992424, 0.087405303, 0.02907197, 0.029545455, 0.02907197, 0.086666667] Spacing= TotalCust=0 Units=0 X0=0.4047 X1=0.1206 Xg=0.155081 XMatrix=[0.198522727, 0.080227273, 0.095018939, 0.080227273, 0.201723485, 0.072897727, 0.095018939, 0.072897727, 0.204166667] Yprim=[9.576458189469822, -18.40154847958071, -2.5480901258821644, 4.832635167208151, -4.159862772903724, 6.095749555334318, -9.576458189469822, 18.40154864948864, 2.5480901258821644, -4.832635200289758, 4.159862772903724, -6.095749607375705, -2.5480901258821644, 4.832635167208151, 7.693972469681056, -17.137717971681543, -1.5010908911935426, 3.95955297732196, 2.5480901258821644, -4.832635200289758, -7.693972469681056, 17.137718125004636, 1.5010908911935426, -3.9595529971567203, -4.159862772903724, 6.095749555334318, -1.5010908911935426, 3.95955297732196, 8.56396079343126, -17.757659448759547, 4.159862772903724, -6.095749607375705, 1.5010908911935426, -3.9595529971567203, -8.56396079343126, 17.757659610019953, -9.576458189469822, 18.40154864948864, 2.5480901258821644, -4.832635200289758, 4.159862772903724, -6.095749607375705, 9.576458189469822, -18.40154847958071, -2.5480901258821644, 4.832635167208151, -4.159862772903724, 6.095749555334318, 2.5480901258821644, -4.832635200289758, -7.693972469681056, 17.137718125004636, 1.5010908911935426, -3.9595529971567203, -2.5480901258821644, 4.832635167208151, 7.693972469681056, -17.137717971681543, -1.5010908911935426, 3.95955297732196, 4.159862772903724, -6.095749607375705, 1.5010908911935426, -3.9595529971567203, -8.56396079343126, 17.757659610019953, -4.159862772903724, 6.095749555334318, -1.5010908911935426, 3.95955297732196, 8.56396079343126, -17.757659448759547] Idx=31 IsSwitch=False SeasonRating=400.0 bus1=8b8807c56d bus2=c0bb7ea622 Length=0.30996285945875846 ;
new Line.ff60447369 Bus1=29.1.2.3 Bus2=30.1.2.3 C0=1.6 C1=3.4 CMatrix=[3.004631862, -0.585011253, -0.920293787, -0.585011253, 2.71134756, -0.350755566, -0.920293787, -0.350755566, 2.8517100719999995] EmergAmps=600.0 Geometry= LineCode=2 NormAmps=400.0 NumCust=0 Parent=0 Phases=3 R0=0.1784 R1=0.058 Rg=0.01805 Rho=100.0 RMatrix=[0.088371212, 0.02992424, 0.029545455, 0.02992424, 0.087405303, 0.02907197, 0.029545455, 0.02907197, 0.086666667] Spacing= TotalCust=0 Units=0 X0=0.4047 X1=0.1206 Xg=0.155081 XMatrix=[0.198522727, 0.080227273, 0.095018939, 0.080227273, 0.201723485, 0.072897727, 0.095018939, 0.072897727, 0.204166667] Yprim=[8.208392733831275, -15.77275578705006, -2.1840772507561392, 4.142258704510298, -3.5655966624889057, 5.224928174178509, -8.208392733831275, 15.772755985275978, 2.1840772507561392, -4.142258743105506, 3.5655966624889057, -5.224928234893461, -2.1840772507561392, 4.142258704510298, 6.594833545440904, -14.68947249969846, -1.2866493353087503, 3.3939025458509224, 2.1840772507561392, -4.142258743105506, -6.594833545440904, 14.689472678575402, 1.2866493353087503, -3.393902568991476, -3.5655966624889057, 5.224928174178509, -1.2866493353087503, 3.3939025458509224, 7.340537822941079, -15.22085090616568, 3.5655966624889057, -5.224928234893461, 1.2866493353087503, -3.393902568991476, -7.340537822941079, 15.22085109430282, -8.208392733831275, 15.772755985275978, 2.1840772507561392, -4.142258743105506, 3.5655966624889057, -5.224928234893461, 8.208392733831275, -15.77275578705006, -2.1840772507561392, 4.142258704510298, -3.5655966624889057, 5.224928174178509, 2.1840772507561392, -4.142258743105506, -6.594833545440904, 14.689472678575402, 1.2866493353087503, -3.393902568991476, -2.1840772507561392, 4.142258704510298, 6.594833545440904, -14.68947249969846, -1.2866493353087503, 3.3939025458509224, 3.5655966624889057, -5.224928234893461, 1.2866493353087503, -3.393902568991476, -7.340537822941079, 15.22085109430282, -3.5655966624889057, 5.224928174178509, -1.2866493353087503, 3.3939025458509224, 7.340537822941079, -15.22085090616568] Idx=32 IsSwitch=False SeasonRating=400.0 bus1=c0bb7ea622 bus2=daaafde617 Length=0.3433315571259645 ;
new Line.9689c84859 Bus1=30.1.2.3 Bus2=250.1.2.3 C0=1.6 C1=3.4 CMatrix=[3.004631862, -0.585011253, -0.920293787, -0.585011253, 2.71134756, -0.350755566, -0.920293787, -0.350755566, 2.8517100719999995] EmergAmps=600.0 Geometry= LineCode=2 NormAmps=400.0 NumCust=0 Parent=0 Phases=3 R0=0.1784 R1=0.058 Rg=0.01805 Rho=100.0 RMatrix=[0.088371212, 0.02992424, 0.029545455, 0.02992424, 0.087405303, 0.02907197, 0.029545455, 0.02907197, 0.086666667] Spacing= TotalCust=0 Units=0 X0=0.4047 X1=0.1206 Xg=0.155081 XMatrix=[0.198522727, 0.080227273, 0.095018939, 0.080227273, 0.201723485, 0.072897727, 0.095018939, 0.072897727, 0.204166667] Yprim=[14.364687284204724, -27.602322860961, -3.8221351888232427, 7.2489527783802306, -6.239794159355581, 9.143624376369296, -14.364687284204724, 27.60232297423295, 3.8221351888232427, -7.248952800434635, 6.239794159355581, -9.143624411063554, -3.8221351888232427, 7.2489527783802306, 11.540958704521579, -25.706577085291556, -2.2516363367903125, 5.939329482511907, 3.8221351888232427, -7.248952800434635, -11.540958704521579, 25.70657718750695, 2.2516363367903125, -5.93932949573508, -6.239794159355581, 9.143624376369296, -2.2516363367903125, 5.939329482511907, 12.845941190146881, -26.636489307522982, 6.239794159355581, -9.143624411063554, 2.2516363367903125, -5.93932949573508, -12.845941190146881, 26.63648941502992, -14.364687284204724, 27.60232297423295, 3.8221351888232427, -7.248952800434635, 6.239794159355581, -9.143624411063554, 14.364687284204724, -27.602322860961, -3.8221351888232427, 7.2489527783802306, -6.239794159355581, 9.143624376369296, 3.8221351888232427, -7.248952800434635, -11.540958704521579, 25.70657718750695, 2.2516363367903125, -5.93932949573508, -3.8221351888232427, 7.2489527783802306, 11.540958704521579, -25.706577085291556, -2.2516363367903125, 5.939329482511907, 6.239794159355581, -9.143624411063554, 2.2516363367903125, -5.93932949573508, -12.845941190146881, 26.63648941502992, -6.239794159355581, 9.143624376369296, -2.2516363367903125, 5.939329482511907, 12.845941190146881, -26.636489307522982] Idx=33 IsSwitch=False SeasonRating=400.0 bus1=daaafde617 bus2=aa88e761ec Length=0.2000452496921555 ;
new Line.8b9a670143 Bus1=31.3 Bus2=32.3 C0=3.4 C1=3.4 CMatrix=[2.270366128] EmergAmps=600.0 Geometry= LineCode=11 NormAmps=400.0 NumCust=0 Parent=0 Phases=1 R0=0.058 R1=0.058 Rg=0.01805 Rho=100.0 RMatrix=[0.251742424] Spacing= TotalCust=0 Units=0 X0=0.1206 X1=0.1206 Xg=0.155081 XMatrix=[0.255208333] Yprim=[6.530001780576033, -6.619904623575059, -6.530001780576033, 6.619904751961239, -6.530001780576033, 6.619904751961239, 6.530001780576033, -6.619904623575059] Idx=34 IsSwitch=False SeasonRating=400.0 bus1=e887dc6993 bus2=fcd0ee6b99 Length=0.28962239084119157 ;
new Line.781114fc4c Bus1=34.3 Bus2=15.3 C0=3.4 C1=3.4 CMatrix=[2.270366128] EmergAmps=600.0 Geometry= LineCode=11 NormAmps=400.0 NumCust=0 Parent=0 Phases=1 R0=0.058 R1=0.058 Rg=0.01805 Rho=100.0 RMatrix=[0.251742424] Spacing= TotalCust=0 Units=0 X0=0.1206 X1=0.1206 Xg=0.155081 XMatrix=[0.255208333] Yprim=[19.590005341728098, -19.859714213088324, -19.590005341728098, 19.859714255883716, -19.590005341728098, 19.859714255883716, 19.590005341728098, -19.859714213088324] Idx=35 IsSwitch=False SeasonRating=400.0 bus1=1a650842ae bus2=47f0edf178 Length=0.10069821206155807 ;
new Line.31365fa740 Bus1=35.1.2 Bus2=36.1.2 C0=1.6 C1=3.4 CMatrix=[2.569829596, -0.52995137, -0.52995137, 2.597460011] EmergAmps=600.0 Geometry= LineCode=8 NormAmps=400.0 NumCust=0 Parent=0 Phases=2 R0=0.1784 R1=0.058 Rg=0.01805 Rho=100.0 RMatrix=[0.086666667, 0.02907197, 0.02907197, 0.087405303] Spacing= TotalCust=0 Units=0 X0=0.4047 X1=0.1206 Xg=0.155081 XMatrix=[0.204166667, 0.072897727, 0.072897727, 0.201723485] Yprim=[3.155591709117612, -7.28310749708689, -1.202425130544022, 2.5657048633607666, -3.155591709117612, 7.283107811947843, 1.202425130544022, -2.5657049282915287, -1.202425130544022, 2.5657048633607666, 3.2381863470680305, -7.3239748965045655, 1.202425130544022, -2.5657049282915287, -3.2381863470680305, 7.323975214750856, -3.155591709117612, 7.283107811947843, 1.202425130544022, -2.5657049282915287, 3.155591709117612, -7.28310749708689, -1.202425130544022, 2.5657048633607666, 1.202425130544022, -2.5657049282915287, -3.2381863470680305, 7.323975214750856, -1.202425130544022, 2.5657048633607666, 3.2381863470680305, -7.3239748965045655] Idx=36 IsSwitch=False SeasonRating=400.0 bus1=8008e2e380 bus2=340968cb52 Length=0.6609324947153626 ;
new Line.630dab041e Bus1=35.1.2.3 Bus2=40.1.2.3 C0=1.6 C1=3.4 CMatrix=[2.8517100719999995, -0.920293787, -0.350755566, -0.920293787, 3.004631862, -0.585011253, -0.350755566, -0.585011253, 2.71134756] EmergAmps=600.0 Geometry= LineCode=1 NormAmps=400.0 NumCust=0 Parent=0 Phases=3 R0=0.1784 R1=0.058 Rg=0.01805 Rho=100.0 RMatrix=[0.086666667, 0.029545455, 0.02907197, 0.029545455, 0.088371212, 0.029924242, 0.02907197, 0.029924242, 0.087405303] Spacing= TotalCust=0 Units=0 X0=0.4047 X1=0.1206 Xg=0.155081 XMatrix=[0.204166667, 0.095018939, 0.072897727, 0.095018939, 0.198522727, 0.080227273, 0.072897727, 0.080227273, 0.201723485] Yprim=[10.27675297788215, -21.309191360745356, -4.991835356016586, 7.314899463951227, -1.8013091105811212, 4.751463507448854, -10.27675297788215, 21.309191495129028, 4.991835356016586, -7.31489950731905, 1.8013091105811212, -4.7514635239778205, -4.991835356016586, 7.314899463951227, 11.491749734445916, -22.081858371958827, -3.0577079649089667, 5.799162450615596, 4.991835356016586, -7.31489950731905, -11.491749734445916, 22.081858513548767, 3.0577079649089667, -5.799162478183602, -1.8013091105811212, 4.751463507448854, -3.0577079649089667, 5.799162450615596, 9.23276687258708, -20.5652617386612, 1.8013091105811212, -4.7514635239778205, 3.0577079649089667, -5.799162478183602, -9.23276687258708, 20.565261866430443, -10.27675297788215, 21.309191495129028, 4.991835356016586, -7.31489950731905, 1.8013091105811212, -4.7514635239778205, 10.27675297788215, -21.309191360745356, -4.991835356016586, 7.314899463951227, -1.8013091105811212, 4.751463507448854, 4.991835356016586, -7.31489950731905, -11.491749734445916, 22.081858513548767, 3.0577079649089667, -5.799162478183602, -4.991835356016586, 7.314899463951227, 11.491749734445916, -22.081858371958827, -3.0577079649089667, 5.799162450615596, 1.8013091105811212, -4.7514635239778205, 3.0577079649089667, -5.799162478183602, -9.23276687258708, 20.565261866430443, -1.8013091105811212, 4.751463507448854, -3.0577079649089667, 5.799162450615596, 9.23276687258708, -20.5652617386612] Idx=37 IsSwitch=False SeasonRating=400.0 bus1=f8f6e34041 bus2=1f26f59c44 Length=0.24219226194781326 ;
new Line.f1b6e967c6 Bus1=36.1 Bus2=37.1 C0=3.4 C1=3.4 CMatrix=[2.270366128] EmergAmps=600.0 Geometry= LineCode=9 NormAmps=400.0 NumCust=0 Parent=0 Phases=1 R0=0.058 R1=0.058 Rg=0.01805 Rho=100.0 RMatrix=[0.251742424] Spacing= TotalCust=0 Units=0 X0=0.1206 X1=0.1206 Xg=0.155081 XMatrix=[0.255208333] Yprim=[6.530001780576033, -6.619904623575059, -6.530001780576033, 6.619904751961239, -6.530001780576033, 6.619904751961239, 6.530001780576033, -6.619904623575059] Idx=38 IsSwitch=False SeasonRating=400.0 bus1=f15b6f642f bus2=d39dd73e71 Length=0.2908528054358169 ;
new Line.8ff5ae8811 Bus1=36.2 Bus2=38.2 C0=3.4 C1=3.4 CMatrix=[2.270366128] EmergAmps=600.0 Geometry= LineCode=10 NormAmps=400.0 NumCust=0 Parent=0 Phases=1 R0=0.058 R1=0.058 Rg=0.01805 Rho=100.0 RMatrix=[0.251742424] Spacing= TotalCust=0 Units=0 X0=0.1206 X1=0.1206 Xg=0.155081 XMatrix=[0.255208333] Yprim=[7.836002136691239, -7.943885595365004, -7.836002136691239, 7.943885702353487, -7.836002136691239, 7.943885702353487, 7.836002136691239, -7.943885595365004] Idx=39 IsSwitch=False SeasonRating=400.0 bus1=b557323f91 bus2=8b8807c56d Length=0.24285615702756722 ;
new Line.10e262ce14 Bus1=38.2 Bus2=39.2 C0=3.4 C1=3.4 CMatrix=[2.270366128] EmergAmps=600.0 Geometry= LineCode=10 NormAmps=400.0 NumCust=0 Parent=0 Phases=1 R0=0.058 R1=0.058 Rg=0.01805 Rho=100.0 RMatrix=[0.251742424] Spacing= TotalCust=0 Units=0 X0=0.1206 X1=0.1206 Xg=0.155081 XMatrix=[0.255208333] Yprim=[6.027693951300954, -6.110681170417655, -6.027693951300954, 6.110681309502683, -6.027693951300954, 6.110681309502683, 6.027693951300954, -6.110681170417655] Idx=40 IsSwitch=False SeasonRating=400.0 bus1=8b8807c56d bus2=12eadba5a7 Length=0.33454149839762337 ;
new Line.99f6d23bae Bus1=40.3 Bus2=41.3 C0=3.4 C1=3.4 CMatrix=[2.270366128] EmergAmps=600.0 Geometry= LineCode=11 NormAmps=400.0 NumCust=0 Parent=0 Phases=1 R0=0.058 R1=0.058 Rg=0.01805 Rho=100.0 RMatrix=[0.251742424] Spacing= TotalCust=0 Units=0 X0=0.1206 X1=0.1206 Xg=0.155081 XMatrix=[0.255208333] Yprim=[6.027693951300954, -6.110681170417655, -6.027693951300954, 6.110681309502683, -6.027693951300954, 6.110681309502683, 6.027693951300954, -6.110681170417655] Idx=41 IsSwitch=False SeasonRating=400.0 bus1=0804132c70 bus2=6a10a663f2 Length=0.3136188432755018 ;
new Line.e914559c84 Bus1=40.1.2.3 Bus2=42.1.2.3 C0=1.6 C1=3.4 CMatrix=[2.8517100719999995, -0.920293787, -0.350755566, -0.920293787, 3.004631862, -0.585011253, -0.350755566, -0.585011253, 2.71134756] EmergAmps=600.0 Geometry= LineCode=1 NormAmps=400.0 NumCust=0 Parent=0 Phases=3 R0=0.1784 R1=0.058 Rg=0.01805 Rho=100.0 RMatrix=[0.086666667, 0.029545455, 0.02907197, 0.029545455, 0.088371212, 0.029924242, 0.02907197, 0.029924242, 0.087405303] Spacing= TotalCust=0 Units=0 X0=0.4047 X1=0.1206 Xg=0.155081 XMatrix=[0.204166667, 0.095018939, 0.072897727, 0.095018939, 0.198522727, 0.080227273, 0.072897727, 0.080227273, 0.201723485] Yprim=[10.27675297788215, -21.309191360745356, -4.991835356016586, 7.314899463951227, -1.8013091105811212, 4.751463507448854, -10.27675297788215, 21.309191495129028, 4.991835356016586, -7.31489950731905, 1.8013091105811212, -4.7514635239778205, -4.991835356016586, 7.314899463951227, 11.491749734445916, -22.081858371958827, -3.0577079649089667, 5.799162450615596, 4.991835356016586, -7.31489950731905, -11.491749734445916, 22.081858513548767, 3.0577079649089667, -5.799162478183602, -1.8013091105811212, 4.751463507448854, -3.0577079649089667, 5.799162450615596, 9.23276687258708, -20.5652617386612, 1.8013091105811212, -4.7514635239778205, 3.0577079649089667, -5.799162478183602, -9.23276687258708, 20.565261866430443, -10.27675297788215, 21.309191495129028, 4.991835356016586, -7.31489950731905, 1.8013091105811212, -4.7514635239778205, 10.27675297788215, -21.309191360745356, -4.991835356016586, 7.314899463951227, -1.8013091105811212, 4.751463507448854, 4.991835356016586, -7.31489950731905, -11.491749734445916, 22.081858513548767, 3.0577079649089667, -5.799162478183602, -4.991835356016586, 7.314899463951227, 11.491749734445916, -22.081858371958827, -3.0577079649089667, 5.799162450615596, 1.8013091105811212, -4.7514635239778205, 3.0577079649089667, -5.799162478183602, -9.23276687258708, 20.565261866430443, -1.8013091105811212, 4.751463507448854, -3.0577079649089667, 5.799162450615596, 9.23276687258708, -20.5652617386612] Idx=42 IsSwitch=False SeasonRating=400.0 bus1=1f26f59c44 bus2=80b017bf8a Length=0.26087202536442433 ;
new Line.530e1b3d24 Bus1=42.2 Bus2=43.2 C0=3.4 C1=3.4 CMatrix=[2.270366128] EmergAmps=600.0 Geometry= LineCode=10 NormAmps=400.0 NumCust=0 Parent=0 Phases=1 R0=0.058 R1=0.058 Rg=0.01805 Rho=100.0 RMatrix=[0.251742424] Spacing= TotalCust=0 Units=0 X0=0.1206 X1=0.1206 Xg=0.155081 XMatrix=[0.255208333] Yprim=[3.9180010683456197, -3.9719426371997772, -3.9180010683456197, 3.9719428511767436, -3.9180010683456197, 3.9719428511767436, 3.9180010683456197, -3.9719426371997772] Idx=43 IsSwitch=False SeasonRating=400.0 bus1=5cebec11bd bus2=78dcbf8e33 Length=0.5185462501461601 ;
new Line.cdc1660b11 Bus1=42.1.2.3 Bus2=44.1.2.3 C0=1.6 C1=3.4 CMatrix=[2.8517100719999995, -0.920293787, -0.350755566, -0.920293787, 3.004631862, -0.585011253, -0.350755566, -0.585011253, 2.71134756] EmergAmps=600.0 Geometry= LineCode=1 NormAmps=400.0 NumCust=0 Parent=0 Phases=3 R0=0.1784 R1=0.058 Rg=0.01805 Rho=100.0 RMatrix=[0.086666667, 0.029545455, 0.02907197, 0.029545455, 0.088371212, 0.029924242, 0.02907197, 0.029924242, 0.087405303] Spacing= TotalCust=0 Units=0 X0=0.4047 X1=0.1206 Xg=0.155081 XMatrix=[0.204166667, 0.095018939, 0.072897727, 0.095018939, 0.198522727, 0.080227273, 0.072897727, 0.080227273, 0.201723485] Yprim=[12.845941222352682, -26.636489261404336, -6.239794195020733, 9.143624349454555, -2.2516363882263994, 5.9393293917491, -12.845941222352682, 26.636489368911274, 6.239794195020733, -9.143624384148813, 2.2516363882263994, -5.939329404972273, -6.239794195020733, 9.143624349454555, 14.364687168057396, -27.602323028664006, -3.822134956136208, 7.2489530756750975, 6.239794195020733, -9.143624384148813, -14.364687168057396, 27.60232314193596, 3.822134956136208, -7.248953097729502, -2.2516363882263994, 5.9393293917491, -3.822134956136208, 7.2489530756750975, 11.540958590733846, -25.706577230822656, 2.2516363882263994, -5.939329404972273, 3.822134956136208, -7.248953097729502, -11.540958590733846, 25.70657733303805, -12.845941222352682, 26.636489368911274, 6.239794195020733, -9.143624384148813, 2.2516363882263994, -5.939329404972273, 12.845941222352682, -26.636489261404336, -6.239794195020733, 9.143624349454555, -2.2516363882263994, 5.9393293917491, 6.239794195020733, -9.143624384148813, -14.364687168057396, 27.60232314193596, 3.822134956136208, -7.248953097729502, -6.239794195020733, 9.143624349454555, 14.364687168057396, -27.602323028664006, -3.822134956136208, 7.2489530756750975, 2.2516363882263994, -5.939329404972273, 3.822134956136208, -7.248953097729502, -11.540958590733846, 25.70657733303805, -2.2516363882263994, 5.9393293917491, -3.822134956136208, 7.2489530756750975, 11.540958590733846, -25.706577230822656] Idx=44 IsSwitch=False SeasonRating=400.0 bus1=80b017bf8a bus2=3833c7bf4b Length=0.19824803796388565 ;
new Line.291260cda9 Bus1=44.1 Bus2=45.1 C0=3.4 C1=3.4 CMatrix=[2.270366128] EmergAmps=600.0 Geometry= LineCode=9 NormAmps=400.0 NumCust=0 Parent=0 Phases=1 R0=0.058 R1=0.058 Rg=0.01805 Rho=100.0 RMatrix=[0.251742424] Spacing= TotalCust=0 Units=0 X0=0.1206 X1=0.1206 Xg=0.155081 XMatrix=[0.255208333] Yprim=[9.795002670864049, -9.929857042351072, -9.795002670864049, 9.929857127941858, -9.795002670864049, 9.929857127941858, 9.795002670864049, -9.929857042351072] Idx=45 IsSwitch=False SeasonRating=400.0 bus1=4753e11f64 bus2=4753e11f64 Length=0.20763155767480682 ;
new Line.3bc8ed49db Bus1=44.1.2.3 Bus2=47.1.2.3 C0=1.6 C1=3.4 CMatrix=[2.8517100719999995, -0.920293787, -0.350755566, -0.920293787, 3.004631862, -0.585011253, -0.350755566, -0.585011253, 2.71134756] EmergAmps=600.0 Geometry= LineCode=1 NormAmps=400.0 NumCust=0 Parent=0 Phases=3 R0=0.1784 R1=0.058 Rg=0.01805 Rho=100.0 RMatrix=[0.086666667, 0.029545455, 0.02907197, 0.029545455, 0.088371212, 0.029924242, 0.02907197, 0.029924242, 0.087405303] Spacing= TotalCust=0 Units=0 X0=0.4047 X1=0.1206 Xg=0.155081 XMatrix=[0.204166667, 0.095018939, 0.072897727, 0.095018939, 0.198522727, 0.080227273, 0.072897727, 0.080227273, 0.201723485] Yprim=[10.27675297788215, -21.309191360745356, -4.991835356016586, 7.314899463951227, -1.8013091105811212, 4.751463507448854, -10.27675297788215, 21.309191495129028, 4.991835356016586, -7.31489950731905, 1.8013091105811212, -4.7514635239778205, -4.991835356016586, 7.314899463951227, 11.491749734445916, -22.081858371958827, -3.0577079649089667, 5.799162450615596, 4.991835356016586, -7.31489950731905, -11.491749734445916, 22.081858513548767, 3.0577079649089667, -5.799162478183602, -1.8013091105811212, 4.751463507448854, -3.0577079649089667, 5.799162450615596, 9.23276687258708, -20.5652617386612, 1.8013091105811212, -4.7514635239778205, 3.0577079649089667, -5.799162478183602, -9.23276687258708, 20.565261866430443, -10.27675297788215, 21.309191495129028, 4.991835356016586, -7.31489950731905, 1.8013091105811212, -4.7514635239778205, 10.27675297788215, -21.309191360745356, -4.991835356016586, 7.314899463951227, -1.8013091105811212, 4.751463507448854, 4.991835356016586, -7.31489950731905, -11.491749734445916, 22.081858513548767, 3.0577079649089667, -5.799162478183602, -4.991835356016586, 7.314899463951227, 11.491749734445916, -22.081858371958827, -3.0577079649089667, 5.799162450615596, 1.8013091105811212, -4.7514635239778205, 3.0577079649089667, -5.799162478183602, -9.23276687258708, 20.565261866430443, -1.8013091105811212, 4.751463507448854, -3.0577079649089667, 5.799162450615596, 9.23276687258708, -20.5652617386612] Idx=46 IsSwitch=False SeasonRating=400.0 bus1=3833c7bf4b bus2=20bc34dc61 Length=0.2509844868900661 ;
new Line.156d624dda Bus1=45.1 Bus2=46.1 C0=3.4 C1=3.4 CMatrix=[2.270366128] EmergAmps=600.0 Geometry= LineCode=9 NormAmps=400.0 NumCust=0 Parent=0 Phases=1 R0=0.058 R1=0.058 Rg=0.01805 Rho=100.0 RMatrix=[0.251742424] Spacing= TotalCust=0 Units=0 X0=0.1206 X1=0.1206 Xg=0.155081 XMatrix=[0.255208333] Yprim=[6.530001780576033, -6.619904623575059, -6.530001780576033, 6.619904751961239, -6.530001780576033, 6.619904751961239, 6.530001780576033, -6.619904623575059] Idx=47 IsSwitch=False SeasonRating=400.0 bus1=4753e11f64 bus2=2a541490eb Length=0.30353253327172375 ;
new Line.166e281cfd Bus1=47.1.2.3 Bus2=48.1.2.3 C0=1.6 C1=3.4 CMatrix=[2.71134756, 0.585011253, -0.350755566, 0.585011253, 3.004631862, -0.920293787, -0.350755566, -0.920293787, 2.8517100719999995] EmergAmps=600.0 Geometry= LineCode=4 NormAmps=400.0 NumCust=0 Parent=0 Phases=3 R0=0.1784 R1=0.058 Rg=0.01805 Rho=100.0 RMatrix=[0.087405303, 0.029924242, 0.02907197, 0.029924242, 0.088371212, 0.029545455, 0.02907197, 0.029545455, 0.086666667] Spacing= TotalCust=0 Units=0 X0=0.4047 X1=0.1206 Xg=0.155081 XMatrix=[0.201723485, 0.080227273, 0.072897727, 0.080227273, 0.198522727, 0.095018939, 0.072897727, 0.095018939, 0.204166667] Yprim=[15.387944787645134, -34.2754363673892, -5.096179941514946, 9.665270813513475, -3.0021818509685354, 7.919105863378987, -15.387944787645134, 34.27543644405074, 5.096179941514946, -9.66527079697267, 3.0021818509685354, -7.919105873296367, -5.096179941514946, 9.665270813513475, 19.15291622407653, -36.803097437627315, -8.319725593360978, 12.191499152844392, 5.096179941514946, -9.66527079697267, -19.15291622407653, 36.80309752258128, 8.319725593360978, -12.191499178865085, -3.0021818509685354, 7.919105863378987, -8.319725593360978, 12.191499152844392, 17.127921629803584, -35.51531907791817, 3.0021818509685354, -7.919105873296367, 8.319725593360978, -12.191499178865085, -17.127921629803584, 35.51531915854837, -15.387944787645134, 34.27543644405074, 5.096179941514946, -9.66527079697267, 3.0021818509685354, -7.919105873296367, 15.387944787645134, -34.2754363673892, -5.096179941514946, 9.665270813513475, -3.0021818509685354, 7.919105863378987, 5.096179941514946, -9.66527079697267, -19.15291622407653, 36.80309752258128, 8.319725593360978, -12.191499178865085, -5.096179941514946, 9.665270813513475, 19.15291622407653, -36.803097437627315, -8.319725593360978, 12.191499152844392, 3.0021818509685354, -7.919105873296367, 8.319725593360978, -12.191499178865085, -17.127921629803584, 35.51531915854837, -3.0021818509685354, 7.919105863378987, -8.319725593360978, 12.191499152844392, 17.127921629803584, -35.51531907791817] Idx=48 IsSwitch=False SeasonRating=400.0 bus1=20bc34dc61 bus2=d9a1fcc6f2 Length=0.14463098666069085 ;
new Line.b49a37e058 Bus1=47.1.2.3 Bus2=49.1.2.3 C0=1.6 C1=3.4 CMatrix=[2.71134756, 0.585011253, -0.350755566, 0.585011253, 3.004631862, -0.920293787, -0.350755566, -0.920293787, 2.8517100719999995] EmergAmps=600.0 Geometry= LineCode=4 NormAmps=400.0 NumCust=0 Parent=0 Phases=3 R0=0.1784 R1=0.058 Rg=0.01805 Rho=100.0 RMatrix=[0.087405303, 0.029924242, 0.02907197, 0.029924242, 0.088371212, 0.029545455, 0.02907197, 0.029545455, 0.086666667] Spacing= TotalCust=0 Units=0 X0=0.4047 X1=0.1206 Xg=0.155081 XMatrix=[0.201723485, 0.080227273, 0.072897727, 0.080227273, 0.198522727, 0.095018939, 0.072897727, 0.095018939, 0.204166667] Yprim=[9.23276687258708, -20.5652617386612, -3.0577079649089667, 5.799162505751608, -1.8013091105811212, 4.751463507448854, -9.23276687258708, 20.565261866430443, 3.0577079649089667, -5.799162478183602, 1.8013091105811212, -4.7514635239778205, -3.0577079649089667, 5.799162505751608, 11.491749734445916, -22.081858371958827, -4.991835356016586, 7.314899463951227, 3.0577079649089667, -5.799162478183602, -11.491749734445916, 22.081858513548767, 4.991835356016586, -7.31489950731905, -1.8013091105811212, 4.751463507448854, -4.991835356016586, 7.314899463951227, 10.27675297788215, -21.309191360745356, 1.8013091105811212, -4.7514635239778205, 4.991835356016586, -7.31489950731905, -10.27675297788215, 21.309191495129028, -9.23276687258708, 20.565261866430443, 3.0577079649089667, -5.799162478183602, 1.8013091105811212, -4.7514635239778205, 9.23276687258708, -20.5652617386612, -3.0577079649089667, 5.799162505751608, -1.8013091105811212, 4.751463507448854, 3.0577079649089667, -5.799162478183602, -11.491749734445916, 22.081858513548767, 4.991835356016586, -7.31489950731905, -3.0577079649089667, 5.799162505751608, 11.491749734445916, -22.081858371958827, -4.991835356016586, 7.314899463951227, 1.8013091105811212, -4.7514635239778205, 4.991835356016586, -7.31489950731905, -10.27675297788215, 21.309191495129028, -1.8013091105811212, 4.751463507448854, -4.991835356016586, 7.314899463951227, 10.27675297788215, -21.309191360745356] Idx=49 IsSwitch=False SeasonRating=400.0 bus1=20bc34dc61 bus2=40bf89b784 Length=0.25438337188937166 ;
...